*SPEF "IEEE 1481-1999"
*DESIGN "pe"
*DATE "Thu Dec  7 14:22:43 2023"
*VENDOR "SYNOPSYS INC"
*PROGRAM "Synopsys Design Compiler"
*VERSION "T-2022.03-SP3"
*DESIGN_FLOW "SYNTHESIS"
*DIVIDER /
*DELIMITER :
*BUS_DELIMITER []
*T_UNIT 1.0 NS
*C_UNIT 0.0010 PF
*R_UNIT 1000.0 KOHM
*L_UNIT 1.0 HENRY

*PORTS

clk I *L 0.000e+00 *S 0.000e+00 6.619e-01 *D NBUFFX4_RVT 
rst I *L 0.000e+00 *S 9.962e-03 1.426e-02 *D NBUFFX4_RVT 
mode_in\[1\] I *L 0.000e+00 *S 2.918e-04 1.045e-02 *D NBUFFX4_RVT 
mode_in\[0\] I *L 0.000e+00 *S 2.918e-04 1.045e-02 *D NBUFFX4_RVT 
change_mode I *L 0.000e+00 *S 2.287e-03 3.724e-02 *D NBUFFX4_RVT 
ifmap_packet\[37\] I *L 0.000e+00 *S 2.918e-04 1.045e-02 *D NBUFFX4_RVT 
ifmap_packet\[36\] I *L 0.000e+00 *S 2.918e-04 1.045e-02 *D NBUFFX4_RVT 
ifmap_packet\[35\] I *L 0.000e+00 *S 2.918e-04 1.045e-02 *D NBUFFX4_RVT 
ifmap_packet\[34\] I *L 0.000e+00 *S 2.918e-04 1.045e-02 *D NBUFFX4_RVT 
ifmap_packet\[33\] I *L 0.000e+00 *S 2.918e-04 1.045e-02 *D NBUFFX4_RVT 
ifmap_packet\[32\] I *L 0.000e+00 *S 2.918e-04 1.045e-02 *D NBUFFX4_RVT 
ifmap_packet\[31\] I *L 0.000e+00 *S 1.035e-03 3.707e-02 *D NBUFFX4_RVT 
ifmap_packet\[30\] I *L 0.000e+00 *S 1.035e-03 3.707e-02 *D NBUFFX4_RVT 
ifmap_packet\[29\] I *L 0.000e+00 *S 1.035e-03 3.707e-02 *D NBUFFX4_RVT 
ifmap_packet\[28\] I *L 0.000e+00 *S 1.035e-03 3.707e-02 *D NBUFFX4_RVT 
ifmap_packet\[27\] I *L 0.000e+00 *S 1.035e-03 3.707e-02 *D NBUFFX4_RVT 
ifmap_packet\[26\] I *L 0.000e+00 *S 1.035e-03 3.707e-02 *D NBUFFX4_RVT 
ifmap_packet\[25\] I *L 0.000e+00 *S 1.035e-03 3.707e-02 *D NBUFFX4_RVT 
ifmap_packet\[24\] I *L 0.000e+00 *S 1.035e-03 3.707e-02 *D NBUFFX4_RVT 
ifmap_packet\[23\] I *L 0.000e+00 *S 1.035e-03 3.707e-02 *D NBUFFX4_RVT 
ifmap_packet\[22\] I *L 0.000e+00 *S 1.035e-03 3.707e-02 *D NBUFFX4_RVT 
ifmap_packet\[21\] I *L 0.000e+00 *S 1.035e-03 3.707e-02 *D NBUFFX4_RVT 
ifmap_packet\[20\] I *L 0.000e+00 *S 1.035e-03 3.707e-02 *D NBUFFX4_RVT 
ifmap_packet\[19\] I *L 0.000e+00 *S 1.035e-03 3.707e-02 *D NBUFFX4_RVT 
ifmap_packet\[18\] I *L 0.000e+00 *S 1.035e-03 3.707e-02 *D NBUFFX4_RVT 
ifmap_packet\[17\] I *L 0.000e+00 *S 1.035e-03 3.707e-02 *D NBUFFX4_RVT 
ifmap_packet\[16\] I *L 0.000e+00 *S 1.035e-03 3.707e-02 *D NBUFFX4_RVT 
ifmap_packet\[15\] I *L 0.000e+00 *S 1.035e-03 3.707e-02 *D NBUFFX4_RVT 
ifmap_packet\[14\] I *L 0.000e+00 *S 1.035e-03 3.707e-02 *D NBUFFX4_RVT 
ifmap_packet\[13\] I *L 0.000e+00 *S 1.035e-03 3.707e-02 *D NBUFFX4_RVT 
ifmap_packet\[12\] I *L 0.000e+00 *S 1.035e-03 3.707e-02 *D NBUFFX4_RVT 
ifmap_packet\[11\] I *L 0.000e+00 *S 1.035e-03 3.707e-02 *D NBUFFX4_RVT 
ifmap_packet\[10\] I *L 0.000e+00 *S 1.035e-03 3.707e-02 *D NBUFFX4_RVT 
ifmap_packet\[9\] I *L 0.000e+00 *S 1.035e-03 3.707e-02 *D NBUFFX4_RVT 
ifmap_packet\[8\] I *L 0.000e+00 *S 1.035e-03 3.707e-02 *D NBUFFX4_RVT 
ifmap_packet\[7\] I *L 0.000e+00 *S 1.035e-03 3.707e-02 *D NBUFFX4_RVT 
ifmap_packet\[6\] I *L 0.000e+00 *S 1.035e-03 3.707e-02 *D NBUFFX4_RVT 
ifmap_packet\[5\] I *L 0.000e+00 *S 1.035e-03 3.707e-02 *D NBUFFX4_RVT 
ifmap_packet\[4\] I *L 0.000e+00 *S 1.035e-03 3.707e-02 *D NBUFFX4_RVT 
ifmap_packet\[3\] I *L 0.000e+00 *S 1.035e-03 3.707e-02 *D NBUFFX4_RVT 
ifmap_packet\[2\] I *L 0.000e+00 *S 1.035e-03 3.707e-02 *D NBUFFX4_RVT 
ifmap_packet\[1\] I *L 0.000e+00 *S 1.035e-03 3.707e-02 *D NBUFFX4_RVT 
ifmap_packet\[0\] I *L 0.000e+00 *S 1.035e-03 3.707e-02 *D NBUFFX4_RVT 
filter_packet\[37\] I *L 0.000e+00 *S 2.918e-04 1.045e-02 *D NBUFFX4_RVT 
filter_packet\[36\] I *L 0.000e+00 *S 1.848e-03 4.178e-02 *D NBUFFX4_RVT 
filter_packet\[35\] I *L 0.000e+00 *S 1.848e-03 4.178e-02 *D NBUFFX4_RVT 
filter_packet\[34\] I *L 0.000e+00 *S 2.918e-04 1.045e-02 *D NBUFFX4_RVT 
filter_packet\[33\] I *L 0.000e+00 *S 2.918e-04 1.045e-02 *D NBUFFX4_RVT 
filter_packet\[32\] I *L 0.000e+00 *S 2.918e-04 1.045e-02 *D NBUFFX4_RVT 
filter_packet\[31\] I *L 0.000e+00 *S 2.918e-04 1.045e-02 *D NBUFFX4_RVT 
filter_packet\[30\] I *L 0.000e+00 *S 2.918e-04 1.045e-02 *D NBUFFX4_RVT 
filter_packet\[29\] I *L 0.000e+00 *S 2.918e-04 1.045e-02 *D NBUFFX4_RVT 
filter_packet\[28\] I *L 0.000e+00 *S 2.918e-04 1.045e-02 *D NBUFFX4_RVT 
filter_packet\[27\] I *L 0.000e+00 *S 2.918e-04 1.045e-02 *D NBUFFX4_RVT 
filter_packet\[26\] I *L 0.000e+00 *S 2.918e-04 1.045e-02 *D NBUFFX4_RVT 
filter_packet\[25\] I *L 0.000e+00 *S 2.918e-04 1.045e-02 *D NBUFFX4_RVT 
filter_packet\[24\] I *L 0.000e+00 *S 2.918e-04 1.045e-02 *D NBUFFX4_RVT 
filter_packet\[23\] I *L 0.000e+00 *S 2.918e-04 1.045e-02 *D NBUFFX4_RVT 
filter_packet\[22\] I *L 0.000e+00 *S 2.918e-04 1.045e-02 *D NBUFFX4_RVT 
filter_packet\[21\] I *L 0.000e+00 *S 2.918e-04 1.045e-02 *D NBUFFX4_RVT 
filter_packet\[20\] I *L 0.000e+00 *S 2.918e-04 1.045e-02 *D NBUFFX4_RVT 
filter_packet\[19\] I *L 0.000e+00 *S 2.918e-04 1.045e-02 *D NBUFFX4_RVT 
filter_packet\[18\] I *L 0.000e+00 *S 2.918e-04 1.045e-02 *D NBUFFX4_RVT 
filter_packet\[17\] I *L 0.000e+00 *S 2.918e-04 1.045e-02 *D NBUFFX4_RVT 
filter_packet\[16\] I *L 0.000e+00 *S 2.918e-04 1.045e-02 *D NBUFFX4_RVT 
filter_packet\[15\] I *L 0.000e+00 *S 2.918e-04 1.045e-02 *D NBUFFX4_RVT 
filter_packet\[14\] I *L 0.000e+00 *S 2.918e-04 1.045e-02 *D NBUFFX4_RVT 
filter_packet\[13\] I *L 0.000e+00 *S 2.918e-04 1.045e-02 *D NBUFFX4_RVT 
filter_packet\[12\] I *L 0.000e+00 *S 2.918e-04 1.045e-02 *D NBUFFX4_RVT 
filter_packet\[11\] I *L 0.000e+00 *S 2.918e-04 1.045e-02 *D NBUFFX4_RVT 
filter_packet\[10\] I *L 0.000e+00 *S 2.918e-04 1.045e-02 *D NBUFFX4_RVT 
filter_packet\[9\] I *L 0.000e+00 *S 2.918e-04 1.045e-02 *D NBUFFX4_RVT 
filter_packet\[8\] I *L 0.000e+00 *S 2.918e-04 1.045e-02 *D NBUFFX4_RVT 
filter_packet\[7\] I *L 0.000e+00 *S 2.918e-04 1.045e-02 *D NBUFFX4_RVT 
filter_packet\[6\] I *L 0.000e+00 *S 2.918e-04 1.045e-02 *D NBUFFX4_RVT 
filter_packet\[5\] I *L 0.000e+00 *S 2.918e-04 1.045e-02 *D NBUFFX4_RVT 
filter_packet\[4\] I *L 0.000e+00 *S 2.918e-04 1.045e-02 *D NBUFFX4_RVT 
filter_packet\[3\] I *L 0.000e+00 *S 2.918e-04 1.045e-02 *D NBUFFX4_RVT 
filter_packet\[2\] I *L 0.000e+00 *S 2.918e-04 1.045e-02 *D NBUFFX4_RVT 
filter_packet\[1\] I *L 0.000e+00 *S 2.918e-04 1.045e-02 *D NBUFFX4_RVT 
filter_packet\[0\] I *L 0.000e+00 *S 2.918e-04 1.045e-02 *D NBUFFX4_RVT 
op_stage_in\[1\] I *L 0.000e+00 *S 6.520e-04 2.335e-02 *D NBUFFX4_RVT 
op_stage_in\[0\] I *L 0.000e+00 *S 6.520e-04 2.335e-02 *D NBUFFX4_RVT 
psum_in\[14\] I *L 0.000e+00 *S 2.918e-04 1.045e-02 *D NBUFFX4_RVT 
psum_in\[13\] I *L 0.000e+00 *S 2.287e-03 3.724e-02 *D NBUFFX4_RVT 
psum_in\[12\] I *L 0.000e+00 *S 2.287e-03 3.724e-02 *D NBUFFX4_RVT 
psum_in\[11\] I *L 0.000e+00 *S 2.918e-04 1.045e-02 *D NBUFFX4_RVT 
psum_in\[10\] I *L 0.000e+00 *S 2.918e-04 1.045e-02 *D NBUFFX4_RVT 
psum_in\[9\] I *L 0.000e+00 *S 2.918e-04 1.045e-02 *D NBUFFX4_RVT 
psum_in\[8\] I *L 0.000e+00 *S 2.918e-04 1.045e-02 *D NBUFFX4_RVT 
psum_in\[7\] I *L 0.000e+00 *S 2.918e-04 1.045e-02 *D NBUFFX4_RVT 
psum_in\[6\] I *L 0.000e+00 *S 2.918e-04 1.045e-02 *D NBUFFX4_RVT 
psum_in\[5\] I *L 0.000e+00 *S 2.918e-04 1.045e-02 *D NBUFFX4_RVT 
psum_in\[4\] I *L 0.000e+00 *S 2.918e-04 1.045e-02 *D NBUFFX4_RVT 
psum_in\[3\] I *L 0.000e+00 *S 2.918e-04 1.045e-02 *D NBUFFX4_RVT 
psum_in\[2\] I *L 0.000e+00 *S 2.918e-04 1.045e-02 *D NBUFFX4_RVT 
psum_in\[1\] I *L 0.000e+00 *S 2.918e-04 1.045e-02 *D NBUFFX4_RVT 
psum_in\[0\] I *L 0.000e+00 *S 2.918e-04 1.045e-02 *D NBUFFX4_RVT 
psum_ack_in I *L 0.000e+00 *S 1.035e-03 3.707e-02 *D NBUFFX4_RVT 
conv_continue I *L 0.000e+00 *S 6.542e-03 1.339e-02 *D NBUFFX4_RVT 
psum_out\[14\] O *L 3.000e-01 *S 0.000e+00 0.000e+00 
psum_out\[13\] O *L 3.000e-01 *S 0.000e+00 0.000e+00 
psum_out\[12\] O *L 3.000e-01 *S 0.000e+00 0.000e+00 
psum_out\[11\] O *L 3.000e-01 *S 0.000e+00 0.000e+00 
psum_out\[10\] O *L 3.000e-01 *S 0.000e+00 0.000e+00 
psum_out\[9\] O *L 3.000e-01 *S 0.000e+00 0.000e+00 
psum_out\[8\] O *L 3.000e-01 *S 0.000e+00 0.000e+00 
psum_out\[7\] O *L 3.000e-01 *S 0.000e+00 0.000e+00 
psum_out\[6\] O *L 3.000e-01 *S 0.000e+00 0.000e+00 
psum_out\[5\] O *L 3.000e-01 *S 0.000e+00 0.000e+00 
psum_out\[4\] O *L 3.000e-01 *S 0.000e+00 0.000e+00 
psum_out\[3\] O *L 3.000e-01 *S 0.000e+00 0.000e+00 
psum_out\[2\] O *L 3.000e-01 *S 0.000e+00 0.000e+00 
psum_out\[1\] O *L 3.000e-01 *S 0.000e+00 0.000e+00 
psum_out\[0\] O *L 3.000e-01 *S 0.000e+00 0.000e+00 
psum_ack_out O *L 3.000e-01 *S 0.000e+00 0.000e+00 
conv_done O *L 3.000e-01 *S 0.000e+00 0.000e+00 
error O *L 3.000e-01 *S 0.000e+00 0.000e+00 
full O *L 3.000e-01 *S 0.000e+00 0.000e+00 

*R_NET N0 2.211e-01
*DRIVER I_41:Z
*CELL GTECH_NOT
*C2_R1_C1 1.106e-01 1.710e-02 1.106e-01 
*LOADS
*RC C2873:A 3.783e-03
*END

*R_NET N1 2.211e-01
*DRIVER I_42:Z
*CELL GTECH_NOT
*C2_R1_C1 1.106e-01 1.710e-02 1.106e-01 
*LOADS
*RC C2874:B 3.783e-03
*END

*R_NET N2 2.211e-01
*DRIVER I_43:Z
*CELL GTECH_NOT
*C2_R1_C1 1.106e-01 1.710e-02 1.106e-01 
*LOADS
*RC C2875:A 3.783e-03
*END

*R_NET N3 2.211e-01
*DRIVER I_44:Z
*CELL GTECH_NOT
*C2_R1_C1 1.106e-01 1.710e-02 1.106e-01 
*LOADS
*RC C2875:B 3.783e-03
*END

*R_NET N4 2.211e-01
*DRIVER I_45:Z
*CELL GTECH_NOT
*C2_R1_C1 1.106e-01 1.710e-02 1.106e-01 
*LOADS
*RC C2877:A 3.783e-03
*END

*R_NET N5 2.211e-01
*DRIVER I_46:Z
*CELL GTECH_NOT
*C2_R1_C1 1.106e-01 1.710e-02 1.106e-01 
*LOADS
*RC C2878:B 3.783e-03
*END

*R_NET N6 2.211e-01
*DRIVER I_47:Z
*CELL GTECH_NOT
*C2_R1_C1 1.106e-01 1.710e-02 1.106e-01 
*LOADS
*RC C2879:A 3.783e-03
*END

*R_NET N7 2.211e-01
*DRIVER I_48:Z
*CELL GTECH_NOT
*C2_R1_C1 1.106e-01 1.710e-02 1.106e-01 
*LOADS
*RC C2879:B 3.783e-03
*END

*R_NET N8 2.211e-01
*DRIVER I_49:Z
*CELL GTECH_NOT
*C2_R1_C1 1.106e-01 1.710e-02 1.106e-01 
*LOADS
*RC C2881:A 3.783e-03
*END

*R_NET N9 2.211e-01
*DRIVER I_50:Z
*CELL GTECH_NOT
*C2_R1_C1 1.106e-01 1.710e-02 1.106e-01 
*LOADS
*RC C2882:B 3.783e-03
*END

*R_NET N10 2.211e-01
*DRIVER I_51:Z
*CELL GTECH_NOT
*C2_R1_C1 1.106e-01 1.710e-02 1.106e-01 
*LOADS
*RC C2883:A 3.783e-03
*END

*R_NET N11 2.211e-01
*DRIVER I_52:Z
*CELL GTECH_NOT
*C2_R1_C1 1.106e-01 1.710e-02 1.106e-01 
*LOADS
*RC C2883:B 3.783e-03
*END

*R_NET N12 2.211e-01
*DRIVER I_53:Z
*CELL GTECH_NOT
*C2_R1_C1 1.106e-01 1.710e-02 1.106e-01 
*LOADS
*RC C2885:A 3.783e-03
*END

*R_NET N13 2.211e-01
*DRIVER I_54:Z
*CELL GTECH_NOT
*C2_R1_C1 1.106e-01 1.710e-02 1.106e-01 
*LOADS
*RC C2886:B 3.783e-03
*END

*R_NET N14 2.211e-01
*DRIVER I_55:Z
*CELL GTECH_NOT
*C2_R1_C1 1.106e-01 1.710e-02 1.106e-01 
*LOADS
*RC C2887:A 3.783e-03
*END

*R_NET N15 2.211e-01
*DRIVER I_56:Z
*CELL GTECH_NOT
*C2_R1_C1 1.106e-01 1.710e-02 1.106e-01 
*LOADS
*RC C2887:B 3.783e-03
*END

*R_NET N16 2.211e-01
*DRIVER I_57:Z
*CELL GTECH_NOT
*C2_R1_C1 1.106e-01 1.710e-02 1.106e-01 
*LOADS
*RC C2889:A 3.783e-03
*END

*R_NET N17 2.211e-01
*DRIVER I_58:Z
*CELL GTECH_NOT
*C2_R1_C1 1.106e-01 1.710e-02 1.106e-01 
*LOADS
*RC C2890:B 3.783e-03
*END

*R_NET N18 2.211e-01
*DRIVER I_59:Z
*CELL GTECH_NOT
*C2_R1_C1 1.106e-01 1.710e-02 1.106e-01 
*LOADS
*RC C2891:A 3.783e-03
*END

*R_NET N19 2.211e-01
*DRIVER I_60:Z
*CELL GTECH_NOT
*C2_R1_C1 1.106e-01 1.710e-02 1.106e-01 
*LOADS
*RC C2891:B 3.783e-03
*END

*R_NET N20 2.211e-01
*DRIVER I_61:Z
*CELL GTECH_NOT
*C2_R1_C1 1.106e-01 1.710e-02 1.106e-01 
*LOADS
*RC C2893:A 3.783e-03
*END

*R_NET N21 2.211e-01
*DRIVER I_62:Z
*CELL GTECH_NOT
*C2_R1_C1 1.106e-01 1.710e-02 1.106e-01 
*LOADS
*RC C2894:B 3.783e-03
*END

*R_NET N22 2.211e-01
*DRIVER I_63:Z
*CELL GTECH_NOT
*C2_R1_C1 1.106e-01 1.710e-02 1.106e-01 
*LOADS
*RC C2895:A 3.783e-03
*END

*R_NET N23 2.211e-01
*DRIVER I_64:Z
*CELL GTECH_NOT
*C2_R1_C1 1.106e-01 1.710e-02 1.106e-01 
*LOADS
*RC C2895:B 3.783e-03
*END

*R_NET N24 2.211e-01
*DRIVER I_65:Z
*CELL GTECH_NOT
*C2_R1_C1 1.106e-01 1.710e-02 1.106e-01 
*LOADS
*RC C2896:A 3.783e-03
*END

*R_NET N25 2.211e-01
*DRIVER I_66:Z
*CELL GTECH_NOT
*C2_R1_C1 1.106e-01 1.710e-02 1.106e-01 
*LOADS
*RC C2896:B 3.783e-03
*END

*R_NET N26 2.211e-01
*DRIVER I_67:Z
*CELL GTECH_NOT
*C2_R1_C1 1.106e-01 1.710e-02 1.106e-01 
*LOADS
*RC C2896:C 3.783e-03
*END

*R_NET N27 2.211e-01
*DRIVER I_68:Z
*CELL GTECH_NOT
*C2_R1_C1 1.106e-01 1.710e-02 1.106e-01 
*LOADS
*RC C2896:D 3.783e-03
*END

*R_NET N28 2.211e-01
*DRIVER I_69:Z
*CELL GTECH_NOT
*C2_R1_C1 1.106e-01 1.710e-02 1.106e-01 
*LOADS
*RC C2897:B 3.783e-03
*END

*R_NET N29 2.211e-01
*DRIVER I_70:Z
*CELL GTECH_NOT
*C2_R1_C1 1.106e-01 1.710e-02 1.106e-01 
*LOADS
*RC C2897:C 3.783e-03
*END

*R_NET N30 2.211e-01
*DRIVER I_71:Z
*CELL GTECH_NOT
*C2_R1_C1 1.106e-01 1.710e-02 1.106e-01 
*LOADS
*RC C2898:A 3.783e-03
*END

*R_NET N31 2.211e-01
*DRIVER I_72:Z
*CELL GTECH_NOT
*C2_R1_C1 1.106e-01 1.710e-02 1.106e-01 
*LOADS
*RC C2898:B 3.783e-03
*END

*R_NET N32 2.211e-01
*DRIVER I_73:Z
*CELL GTECH_NOT
*C2_R1_C1 1.106e-01 1.710e-02 1.106e-01 
*LOADS
*RC C2898:D 3.783e-03
*END

*R_NET N33 2.211e-01
*DRIVER I_74:Z
*CELL GTECH_NOT
*C2_R1_C1 1.106e-01 1.710e-02 1.106e-01 
*LOADS
*RC C2899:A 3.783e-03
*END

*R_NET N34 2.211e-01
*DRIVER I_75:Z
*CELL GTECH_NOT
*C2_R1_C1 1.106e-01 1.710e-02 1.106e-01 
*LOADS
*RC C2899:B 3.783e-03
*END

*R_NET N35 2.211e-01
*DRIVER I_76:Z
*CELL GTECH_NOT
*C2_R1_C1 1.106e-01 1.710e-02 1.106e-01 
*LOADS
*RC C2899:C 3.783e-03
*END

*R_NET N36 2.211e-01
*DRIVER I_77:Z
*CELL GTECH_NOT
*C2_R1_C1 1.106e-01 1.710e-02 1.106e-01 
*LOADS
*RC C2900:A 3.783e-03
*END

*R_NET N37 2.211e-01
*DRIVER I_78:Z
*CELL GTECH_NOT
*C2_R1_C1 1.106e-01 1.710e-02 1.106e-01 
*LOADS
*RC C2901:B 3.783e-03
*END

*R_NET N38 2.211e-01
*DRIVER I_79:Z
*CELL GTECH_NOT
*C2_R1_C1 1.106e-01 1.710e-02 1.106e-01 
*LOADS
*RC C2901:C 3.783e-03
*END

*R_NET N39 2.211e-01
*DRIVER I_80:Z
*CELL GTECH_NOT
*C2_R1_C1 1.106e-01 1.710e-02 1.106e-01 
*LOADS
*RC C2902:C 3.783e-03
*END

*R_NET N40 2.211e-01
*DRIVER I_81:Z
*CELL GTECH_NOT
*C2_R1_C1 1.106e-01 1.710e-02 1.106e-01 
*LOADS
*RC C2903:B 3.783e-03
*END

*R_NET N41 2.211e-01
*DRIVER I_82:Z
*CELL GTECH_NOT
*C2_R1_C1 1.106e-01 1.710e-02 1.106e-01 
*LOADS
*RC C2912:A 3.783e-03
*END

*R_NET N42 2.211e-01
*DRIVER I_83:Z
*CELL GTECH_NOT
*C2_R1_C1 1.106e-01 1.710e-02 1.106e-01 
*LOADS
*RC C2912:B 3.783e-03
*END

*R_NET N43 2.211e-01
*DRIVER I_84:Z
*CELL GTECH_NOT
*C2_R1_C1 1.106e-01 1.710e-02 1.106e-01 
*LOADS
*RC C2912:C 3.783e-03
*END

*R_NET N44 2.211e-01
*DRIVER I_85:Z
*CELL GTECH_NOT
*C2_R1_C1 1.106e-01 1.710e-02 1.106e-01 
*LOADS
*RC C2912:D 3.783e-03
*END

*R_NET N45 2.211e-01
*DRIVER I_86:Z
*CELL GTECH_NOT
*C2_R1_C1 1.106e-01 1.710e-02 1.106e-01 
*LOADS
*RC C2913:B 3.783e-03
*END

*R_NET N46 2.211e-01
*DRIVER I_87:Z
*CELL GTECH_NOT
*C2_R1_C1 1.106e-01 1.710e-02 1.106e-01 
*LOADS
*RC C2913:C 3.783e-03
*END

*R_NET N47 2.211e-01
*DRIVER I_88:Z
*CELL GTECH_NOT
*C2_R1_C1 1.106e-01 1.710e-02 1.106e-01 
*LOADS
*RC C2914:A 3.783e-03
*END

*R_NET N48 2.211e-01
*DRIVER I_89:Z
*CELL GTECH_NOT
*C2_R1_C1 1.106e-01 1.710e-02 1.106e-01 
*LOADS
*RC C2914:B 3.783e-03
*END

*R_NET N49 2.211e-01
*DRIVER I_90:Z
*CELL GTECH_NOT
*C2_R1_C1 1.106e-01 1.710e-02 1.106e-01 
*LOADS
*RC C2914:D 3.783e-03
*END

*R_NET N50 2.211e-01
*DRIVER I_91:Z
*CELL GTECH_NOT
*C2_R1_C1 1.106e-01 1.710e-02 1.106e-01 
*LOADS
*RC C2915:A 3.783e-03
*END

*R_NET N51 2.211e-01
*DRIVER I_92:Z
*CELL GTECH_NOT
*C2_R1_C1 1.106e-01 1.710e-02 1.106e-01 
*LOADS
*RC C2915:B 3.783e-03
*END

*R_NET N52 2.211e-01
*DRIVER I_93:Z
*CELL GTECH_NOT
*C2_R1_C1 1.106e-01 1.710e-02 1.106e-01 
*LOADS
*RC C2915:C 3.783e-03
*END

*R_NET N53 2.211e-01
*DRIVER I_94:Z
*CELL GTECH_NOT
*C2_R1_C1 1.106e-01 1.710e-02 1.106e-01 
*LOADS
*RC C2916:A 3.783e-03
*END

*R_NET N54 2.211e-01
*DRIVER I_95:Z
*CELL GTECH_NOT
*C2_R1_C1 1.106e-01 1.710e-02 1.106e-01 
*LOADS
*RC C2916:B 3.783e-03
*END

*R_NET N55 2.211e-01
*DRIVER I_96:Z
*CELL GTECH_NOT
*C2_R1_C1 1.106e-01 1.710e-02 1.106e-01 
*LOADS
*RC C2917:B 3.783e-03
*END

*R_NET N56 2.211e-01
*DRIVER I_97:Z
*CELL GTECH_NOT
*C2_R1_C1 1.106e-01 1.710e-02 1.106e-01 
*LOADS
*RC C2917:C 3.783e-03
*END

*R_NET N57 2.211e-01
*DRIVER I_98:Z
*CELL GTECH_NOT
*C2_R1_C1 1.106e-01 1.710e-02 1.106e-01 
*LOADS
*RC C2918:C 3.783e-03
*END

*R_NET N58 2.211e-01
*DRIVER I_99:Z
*CELL GTECH_NOT
*C2_R1_C1 1.106e-01 1.710e-02 1.106e-01 
*LOADS
*RC C2919:B 3.783e-03
*END

*R_NET N59 2.211e-01
*DRIVER I_100:Z
*CELL GTECH_NOT
*C2_R1_C1 1.106e-01 1.710e-02 1.106e-01 
*LOADS
*RC C2921:C 3.783e-03
*END

*R_NET N60 2.211e-01
*DRIVER I_101:Z
*CELL GTECH_NOT
*C2_R1_C1 1.106e-01 1.710e-02 1.106e-01 
*LOADS
*RC C2922:B 3.783e-03
*END

*R_NET N61 2.921e+01
*DRIVER B_0:Z
*CELL GTECH_BUF
*C2_R1_C1 1.461e+01 2.259e+00 1.461e+01 
*LOADS
*RC C3009:CONTROL1_0 3.409e-02
*RC C3008:CONTROL1_0 3.409e-02
*RC C3007:CONTROL1_0 3.409e-02
*RC C3006:CONTROL1_0 3.409e-02
*RC C3005:CONTROL1_0 3.409e-02
*RC C3004:CONTROL1_0 3.409e-02
*RC C2988:CONTROL1_0 3.409e-02
*RC C2987:CONTROL1_0 3.409e-02
*RC C2986:CONTROL1_0 3.409e-02
*RC C2985:CONTROL1_0 3.409e-02
*RC C2984:CONTROL1_0 3.409e-02
*RC C2983:CONTROL1_0 3.409e-02
*RC C2982:CONTROL1_0 3.409e-02
*RC C2981:CONTROL1_0 3.409e-02
*RC C2980:CONTROL1_0 3.409e-02
*RC C2979:CONTROL1_0 3.409e-02
*RC C2978:CONTROL1_0 3.409e-02
*RC C2977:CONTROL1_0 3.409e-02
*RC C2976:CONTROL1_0 3.409e-02
*RC C2975:CONTROL1_0 3.409e-02
*RC C2974:CONTROL1_0 3.409e-02
*RC C2973:CONTROL1_0 3.409e-02
*RC C2972:CONTROL1_0 3.409e-02
*RC C2971:CONTROL1_0 3.409e-02
*RC C2970:CONTROL1_0 3.409e-02
*RC C2966:CONTROL1_0 3.409e-02
*RC C2965:CONTROL1_0 3.409e-02
*RC C2964:CONTROL1_0 3.409e-02
*RC C2963:CONTROL1_0 3.409e-02
*RC C2962:CONTROL1_0 3.409e-02
*RC C2961:CONTROL1_0 3.409e-02
*RC C2959:CONTROL1_0 3.409e-02
*RC C2958:CONTROL1_0 3.409e-02
*RC C2955:CONTROL1_0 3.409e-02
*RC C2954:CONTROL1_0 3.409e-02
*RC C2953:CONTROL1_0 3.409e-02
*RC C2952:CONTROL1_0 3.409e-02
*RC C2945:CONTROL1_0 3.409e-02
*RC C2941:CONTROL1_0 3.409e-02
*RC C2940:CONTROL1_0 3.409e-02
*RC C2932:CONTROL1_0 3.409e-02
*RC C2931:CONTROL1_0 3.409e-02
*RC C2929:CONTROL1_0 3.409e-02
*RC C2928:CONTROL1_0 3.409e-02
*END

*R_NET N62 2.211e-01
*DRIVER B_1:Z
*CELL GTECH_BUF
*C2_R1_C1 1.106e-01 1.710e-02 1.106e-01 
*LOADS
*RC C2930:CONTROL1_0 3.783e-03
*END

*R_NET N63 2.211e-01
*DRIVER B_2:Z
*CELL GTECH_BUF
*C2_R1_C1 1.106e-01 1.710e-02 1.106e-01 
*LOADS
*RC C2934:CONTROL1_0 3.783e-03
*END

*R_NET N64 2.211e-01
*DRIVER B_3:Z
*CELL GTECH_BUF
*C2_R1_C1 1.106e-01 1.710e-02 1.106e-01 
*LOADS
*RC C2934:CONTROL2_0 3.783e-03
*END

*R_NET N65 4.942e-01
*DRIVER B_4:Z
*CELL GTECH_BUF
*C2_R1_C1 2.471e-01 3.822e-02 2.471e-01 
*LOADS
*RC C2968:CONTROL3_0 4.722e-03
*RC C2934:CONTROL3_0 4.722e-03
*END

*R_NET N66 2.211e-01
*DRIVER B_5:Z
*CELL GTECH_BUF
*C2_R1_C1 1.106e-01 1.710e-02 1.106e-01 
*LOADS
*RC C2935:CONTROL1_0 3.783e-03
*END

*R_NET N67 4.942e-01
*DRIVER B_6:Z
*CELL GTECH_BUF
*C2_R1_C1 2.471e-01 3.822e-02 2.471e-01 
*LOADS
*RC C2937:CONTROL1_0 4.722e-03
*RC C2936:CONTROL1_0 4.722e-03
*END

*R_NET N68 4.942e-01
*DRIVER B_7:Z
*CELL GTECH_BUF
*C2_R1_C1 2.471e-01 3.822e-02 2.471e-01 
*LOADS
*RC C2939:CONTROL1_0 4.722e-03
*RC C2938:CONTROL1_0 4.722e-03
*END

*R_NET N69 2.211e-01
*DRIVER B_8:Z
*CELL GTECH_BUF
*C2_R1_C1 1.106e-01 1.710e-02 1.106e-01 
*LOADS
*RC C2942:CONTROL1_0 3.783e-03
*END

*R_NET N70 2.211e-01
*DRIVER B_9:Z
*CELL GTECH_BUF
*C2_R1_C1 1.106e-01 1.710e-02 1.106e-01 
*LOADS
*RC C2942:CONTROL2_0 3.783e-03
*END

*R_NET N71 2.211e-01
*DRIVER B_10:Z
*CELL GTECH_BUF
*C2_R1_C1 1.106e-01 1.710e-02 1.106e-01 
*LOADS
*RC C2942:CONTROL3_0 3.783e-03
*END

*R_NET N72 2.211e-01
*DRIVER B_11:Z
*CELL GTECH_BUF
*C2_R1_C1 1.106e-01 1.710e-02 1.106e-01 
*LOADS
*RC C2942:CONTROL4_0 3.783e-03
*END

*R_NET N73 2.211e-01
*DRIVER B_12:Z
*CELL GTECH_BUF
*C2_R1_C1 1.106e-01 1.710e-02 1.106e-01 
*LOADS
*RC C2943:CONTROL1_0 3.783e-03
*END

*R_NET N74 2.211e-01
*DRIVER B_13:Z
*CELL GTECH_BUF
*C2_R1_C1 1.106e-01 1.710e-02 1.106e-01 
*LOADS
*RC C2944:CONTROL1_0 3.783e-03
*END

*R_NET N75 2.211e-01
*DRIVER B_14:Z
*CELL GTECH_BUF
*C2_R1_C1 1.106e-01 1.710e-02 1.106e-01 
*LOADS
*RC C2944:CONTROL2_0 3.783e-03
*END

*R_NET N76 7.844e-01
*DRIVER B_15:Z
*CELL GTECH_BUF
*C2_R1_C1 3.922e-01 6.067e-02 3.922e-01 
*LOADS
*RC C2948:CONTROL1_0 5.288e-03
*RC C2947:CONTROL1_0 5.288e-03
*RC C2946:CONTROL1_0 5.288e-03
*END

*R_NET N77 7.844e-01
*DRIVER B_16:Z
*CELL GTECH_BUF
*C2_R1_C1 3.922e-01 6.067e-02 3.922e-01 
*LOADS
*RC C2948:CONTROL2_0 5.288e-03
*RC C2947:CONTROL2_0 5.288e-03
*RC C2946:CONTROL2_0 5.288e-03
*END

*R_NET N78 7.844e-01
*DRIVER B_17:Z
*CELL GTECH_BUF
*C2_R1_C1 3.922e-01 6.067e-02 3.922e-01 
*LOADS
*RC C2948:CONTROL3_0 5.288e-03
*RC C2947:CONTROL3_0 5.288e-03
*RC C2946:CONTROL3_0 5.288e-03
*END

*R_NET N79 7.844e-01
*DRIVER B_18:Z
*CELL GTECH_BUF
*C2_R1_C1 3.922e-01 6.067e-02 3.922e-01 
*LOADS
*RC C2948:CONTROL4_0 5.288e-03
*RC C2947:CONTROL4_0 5.288e-03
*RC C2946:CONTROL4_0 5.288e-03
*END

*R_NET N80 7.844e-01
*DRIVER B_19:Z
*CELL GTECH_BUF
*C2_R1_C1 3.922e-01 6.067e-02 3.922e-01 
*LOADS
*RC C2948:CONTROL5_0 5.288e-03
*RC C2947:CONTROL5_0 5.288e-03
*RC C2946:CONTROL5_0 5.288e-03
*END

*R_NET N81 7.844e-01
*DRIVER B_20:Z
*CELL GTECH_BUF
*C2_R1_C1 3.922e-01 6.067e-02 3.922e-01 
*LOADS
*RC C2948:CONTROL6_0 5.288e-03
*RC C2947:CONTROL6_0 5.288e-03
*RC C2946:CONTROL6_0 5.288e-03
*END

*R_NET N82 7.844e-01
*DRIVER B_21:Z
*CELL GTECH_BUF
*C2_R1_C1 3.922e-01 6.067e-02 3.922e-01 
*LOADS
*RC C2948:CONTROL7_0 5.288e-03
*RC C2947:CONTROL7_0 5.288e-03
*RC C2946:CONTROL7_0 5.288e-03
*END

*R_NET N83 7.844e-01
*DRIVER B_22:Z
*CELL GTECH_BUF
*C2_R1_C1 3.922e-01 6.067e-02 3.922e-01 
*LOADS
*RC C2948:CONTROL8_0 5.288e-03
*RC C2947:CONTROL8_0 5.288e-03
*RC C2946:CONTROL8_0 5.288e-03
*END

*R_NET N84 7.844e-01
*DRIVER B_23:Z
*CELL GTECH_BUF
*C2_R1_C1 3.922e-01 6.067e-02 3.922e-01 
*LOADS
*RC C2951:CONTROL1_0 5.288e-03
*RC C2950:CONTROL1_0 5.288e-03
*RC C2949:CONTROL1_0 5.288e-03
*END

*R_NET N85 7.844e-01
*DRIVER B_24:Z
*CELL GTECH_BUF
*C2_R1_C1 3.922e-01 6.067e-02 3.922e-01 
*LOADS
*RC C2951:CONTROL2_0 5.288e-03
*RC C2950:CONTROL2_0 5.288e-03
*RC C2949:CONTROL2_0 5.288e-03
*END

*R_NET N86 2.211e-01
*DRIVER B_25:Z
*CELL GTECH_BUF
*C2_R1_C1 1.106e-01 1.710e-02 1.106e-01 
*LOADS
*RC C2956:CONTROL1_0 3.783e-03
*END

*R_NET N87 2.211e-01
*DRIVER B_26:Z
*CELL GTECH_BUF
*C2_R1_C1 1.106e-01 1.710e-02 1.106e-01 
*LOADS
*RC C2957:CONTROL1_0 3.783e-03
*END

*R_NET N88 2.211e-01
*DRIVER B_27:Z
*CELL GTECH_BUF
*C2_R1_C1 1.106e-01 1.710e-02 1.106e-01 
*LOADS
*RC C2960:CONTROL1_0 3.783e-03
*END

*R_NET N89 2.211e-01
*DRIVER B_28:Z
*CELL GTECH_BUF
*C2_R1_C1 1.106e-01 1.710e-02 1.106e-01 
*LOADS
*RC C2968:CONTROL1_0 3.783e-03
*END

*R_NET N90 2.211e-01
*DRIVER B_29:Z
*CELL GTECH_BUF
*C2_R1_C1 1.106e-01 1.710e-02 1.106e-01 
*LOADS
*RC C2968:CONTROL2_0 3.783e-03
*END

*R_NET N91 2.211e-01
*DRIVER B_30:Z
*CELL GTECH_BUF
*C2_R1_C1 1.106e-01 1.710e-02 1.106e-01 
*LOADS
*RC C2969:CONTROL1_0 3.783e-03
*END

*R_NET N92 2.211e-01
*DRIVER B_31:Z
*CELL GTECH_BUF
*C2_R1_C1 1.106e-01 1.710e-02 1.106e-01 
*LOADS
*RC C2989:CONTROL1_0 3.783e-03
*END

*R_NET N93 2.211e-01
*DRIVER B_32:Z
*CELL GTECH_BUF
*C2_R1_C1 1.106e-01 1.710e-02 1.106e-01 
*LOADS
*RC C2990:CONTROL1_0 3.783e-03
*END

*R_NET N94 2.211e-01
*DRIVER B_33:Z
*CELL GTECH_BUF
*C2_R1_C1 1.106e-01 1.710e-02 1.106e-01 
*LOADS
*RC C2991:CONTROL1_0 3.783e-03
*END

*R_NET N95 2.211e-01
*DRIVER B_34:Z
*CELL GTECH_BUF
*C2_R1_C1 1.106e-01 1.710e-02 1.106e-01 
*LOADS
*RC C2992:CONTROL1_0 3.783e-03
*END

*R_NET N96 2.211e-01
*DRIVER B_35:Z
*CELL GTECH_BUF
*C2_R1_C1 1.106e-01 1.710e-02 1.106e-01 
*LOADS
*RC C2993:CONTROL1_0 3.783e-03
*END

*R_NET N97 4.942e-01
*DRIVER B_36:Z
*CELL GTECH_BUF
*C2_R1_C1 2.471e-01 3.822e-02 2.471e-01 
*LOADS
*RC C2995:CONTROL1_0 4.722e-03
*RC C2994:CONTROL1_0 4.722e-03
*END

*R_NET N98 2.211e-01
*DRIVER B_37:Z
*CELL GTECH_BUF
*C2_R1_C1 1.106e-01 1.710e-02 1.106e-01 
*LOADS
*RC C2996:CONTROL1_0 3.783e-03
*END

*R_NET N99 2.211e-01
*DRIVER B_38:Z
*CELL GTECH_BUF
*C2_R1_C1 1.106e-01 1.710e-02 1.106e-01 
*LOADS
*RC C2997:CONTROL1_0 3.783e-03
*END

*R_NET N100 2.211e-01
*DRIVER B_39:Z
*CELL GTECH_BUF
*C2_R1_C1 1.106e-01 1.710e-02 1.106e-01 
*LOADS
*RC C2998:CONTROL1_0 3.783e-03
*END

*R_NET N101 2.211e-01
*DRIVER B_40:Z
*CELL GTECH_BUF
*C2_R1_C1 1.106e-01 1.710e-02 1.106e-01 
*LOADS
*RC C2999:CONTROL1_0 3.783e-03
*END

*R_NET N102 4.942e-01
*DRIVER B_41:Z
*CELL GTECH_BUF
*C2_R1_C1 2.471e-01 3.822e-02 2.471e-01 
*LOADS
*RC C3001:CONTROL1_0 4.722e-03
*RC C3000:CONTROL1_0 4.722e-03
*END

*R_NET N103 2.211e-01
*DRIVER B_42:Z
*CELL GTECH_BUF
*C2_R1_C1 1.106e-01 1.710e-02 1.106e-01 
*LOADS
*RC C3000:CONTROL3_0 3.783e-03
*END

*R_NET N104 4.942e-01
*DRIVER B_43:Z
*CELL GTECH_BUF
*C2_R1_C1 2.471e-01 3.822e-02 2.471e-01 
*LOADS
*RC C3003:CONTROL1_0 4.722e-03
*RC C3002:CONTROL1_0 4.722e-03
*END

*R_NET N105 2.211e-01
*DRIVER B_44:Z
*CELL GTECH_BUF
*C2_R1_C1 1.106e-01 1.710e-02 1.106e-01 
*LOADS
*RC C3004:CONTROL2_0 3.783e-03
*END

*R_NET N106 2.546e+00
*DRIVER B_45:Z
*CELL GTECH_BUF
*C2_R1_C1 1.273e+00 1.969e-01 1.273e+00 
*LOADS
*RC C3017:CONTROL1_0 7.834e-03
*RC C3016:CONTROL1_0 7.834e-03
*RC C3015:CONTROL1_0 7.834e-03
*RC C3014:CONTROL1_0 7.834e-03
*RC C3013:CONTROL1_0 7.834e-03
*RC C3012:CONTROL1_0 7.834e-03
*RC C3011:CONTROL1_0 7.834e-03
*RC C3010:CONTROL1_0 7.834e-03
*END

*R_NET N107 2.546e+00
*DRIVER B_46:Z
*CELL GTECH_BUF
*C2_R1_C1 1.273e+00 1.969e-01 1.273e+00 
*LOADS
*RC C3017:CONTROL2_0 7.834e-03
*RC C3016:CONTROL2_0 7.834e-03
*RC C3015:CONTROL2_0 7.834e-03
*RC C3014:CONTROL2_0 7.834e-03
*RC C3013:CONTROL2_0 7.834e-03
*RC C3012:CONTROL2_0 7.834e-03
*RC C3011:CONTROL2_0 7.834e-03
*RC C3010:CONTROL2_0 7.834e-03
*END

*R_NET N108 2.546e+00
*DRIVER B_47:Z
*CELL GTECH_BUF
*C2_R1_C1 1.273e+00 1.969e-01 1.273e+00 
*LOADS
*RC C3017:CONTROL3_0 7.834e-03
*RC C3016:CONTROL3_0 7.834e-03
*RC C3015:CONTROL3_0 7.834e-03
*RC C3014:CONTROL3_0 7.834e-03
*RC C3013:CONTROL3_0 7.834e-03
*RC C3012:CONTROL3_0 7.834e-03
*RC C3011:CONTROL3_0 7.834e-03
*RC C3010:CONTROL3_0 7.834e-03
*END

*R_NET N109 2.546e+00
*DRIVER B_48:Z
*CELL GTECH_BUF
*C2_R1_C1 1.273e+00 1.969e-01 1.273e+00 
*LOADS
*RC C3017:CONTROL4_0 7.834e-03
*RC C3016:CONTROL4_0 7.834e-03
*RC C3015:CONTROL4_0 7.834e-03
*RC C3014:CONTROL4_0 7.834e-03
*RC C3013:CONTROL4_0 7.834e-03
*RC C3012:CONTROL4_0 7.834e-03
*RC C3011:CONTROL4_0 7.834e-03
*RC C3010:CONTROL4_0 7.834e-03
*END

*R_NET N110 2.546e+00
*DRIVER B_49:Z
*CELL GTECH_BUF
*C2_R1_C1 1.273e+00 1.969e-01 1.273e+00 
*LOADS
*RC C3017:CONTROL5_0 7.834e-03
*RC C3016:CONTROL5_0 7.834e-03
*RC C3015:CONTROL5_0 7.834e-03
*RC C3014:CONTROL5_0 7.834e-03
*RC C3013:CONTROL5_0 7.834e-03
*RC C3012:CONTROL5_0 7.834e-03
*RC C3011:CONTROL5_0 7.834e-03
*RC C3010:CONTROL5_0 7.834e-03
*END

*R_NET N111 2.546e+00
*DRIVER B_50:Z
*CELL GTECH_BUF
*C2_R1_C1 1.273e+00 1.969e-01 1.273e+00 
*LOADS
*RC C3017:CONTROL6_0 7.834e-03
*RC C3016:CONTROL6_0 7.834e-03
*RC C3015:CONTROL6_0 7.834e-03
*RC C3014:CONTROL6_0 7.834e-03
*RC C3013:CONTROL6_0 7.834e-03
*RC C3012:CONTROL6_0 7.834e-03
*RC C3011:CONTROL6_0 7.834e-03
*RC C3010:CONTROL6_0 7.834e-03
*END

*R_NET N112 2.546e+00
*DRIVER B_51:Z
*CELL GTECH_BUF
*C2_R1_C1 1.273e+00 1.969e-01 1.273e+00 
*LOADS
*RC C3017:CONTROL7_0 7.834e-03
*RC C3016:CONTROL7_0 7.834e-03
*RC C3015:CONTROL7_0 7.834e-03
*RC C3014:CONTROL7_0 7.834e-03
*RC C3013:CONTROL7_0 7.834e-03
*RC C3012:CONTROL7_0 7.834e-03
*RC C3011:CONTROL7_0 7.834e-03
*RC C3010:CONTROL7_0 7.834e-03
*END

*R_NET N113 2.546e+00
*DRIVER B_52:Z
*CELL GTECH_BUF
*C2_R1_C1 1.273e+00 1.969e-01 1.273e+00 
*LOADS
*RC C3017:CONTROL8_0 7.834e-03
*RC C3016:CONTROL8_0 7.834e-03
*RC C3015:CONTROL8_0 7.834e-03
*RC C3014:CONTROL8_0 7.834e-03
*RC C3013:CONTROL8_0 7.834e-03
*RC C3012:CONTROL8_0 7.834e-03
*RC C3011:CONTROL8_0 7.834e-03
*RC C3010:CONTROL8_0 7.834e-03
*END

*R_NET N114 2.546e+00
*DRIVER B_53:Z
*CELL GTECH_BUF
*C2_R1_C1 1.273e+00 1.969e-01 1.273e+00 
*LOADS
*RC C3017:CONTROL9_0 7.834e-03
*RC C3016:CONTROL9_0 7.834e-03
*RC C3015:CONTROL9_0 7.834e-03
*RC C3014:CONTROL9_0 7.834e-03
*RC C3013:CONTROL9_0 7.834e-03
*RC C3012:CONTROL9_0 7.834e-03
*RC C3011:CONTROL9_0 7.834e-03
*RC C3010:CONTROL9_0 7.834e-03
*END

*R_NET N115 2.546e+00
*DRIVER B_54:Z
*CELL GTECH_BUF
*C2_R1_C1 1.273e+00 1.969e-01 1.273e+00 
*LOADS
*RC C3017:CONTROL10_0 7.834e-03
*RC C3016:CONTROL10_0 7.834e-03
*RC C3015:CONTROL10_0 7.834e-03
*RC C3014:CONTROL10_0 7.834e-03
*RC C3013:CONTROL10_0 7.834e-03
*RC C3012:CONTROL10_0 7.834e-03
*RC C3011:CONTROL10_0 7.834e-03
*RC C3010:CONTROL10_0 7.834e-03
*END

*R_NET N116 2.546e+00
*DRIVER B_55:Z
*CELL GTECH_BUF
*C2_R1_C1 1.273e+00 1.969e-01 1.273e+00 
*LOADS
*RC C3017:CONTROL11_0 7.834e-03
*RC C3016:CONTROL11_0 7.834e-03
*RC C3015:CONTROL11_0 7.834e-03
*RC C3014:CONTROL11_0 7.834e-03
*RC C3013:CONTROL11_0 7.834e-03
*RC C3012:CONTROL11_0 7.834e-03
*RC C3011:CONTROL11_0 7.834e-03
*RC C3010:CONTROL11_0 7.834e-03
*END

*R_NET N117 2.546e+00
*DRIVER B_56:Z
*CELL GTECH_BUF
*C2_R1_C1 1.273e+00 1.969e-01 1.273e+00 
*LOADS
*RC C3025:CONTROL1_0 7.834e-03
*RC C3024:CONTROL1_0 7.834e-03
*RC C3023:CONTROL1_0 7.834e-03
*RC C3022:CONTROL1_0 7.834e-03
*RC C3021:CONTROL1_0 7.834e-03
*RC C3020:CONTROL1_0 7.834e-03
*RC C3019:CONTROL1_0 7.834e-03
*RC C3018:CONTROL1_0 7.834e-03
*END

*R_NET N118 2.546e+00
*DRIVER B_57:Z
*CELL GTECH_BUF
*C2_R1_C1 1.273e+00 1.969e-01 1.273e+00 
*LOADS
*RC C3025:CONTROL2_0 7.834e-03
*RC C3024:CONTROL2_0 7.834e-03
*RC C3023:CONTROL2_0 7.834e-03
*RC C3022:CONTROL2_0 7.834e-03
*RC C3021:CONTROL2_0 7.834e-03
*RC C3020:CONTROL2_0 7.834e-03
*RC C3019:CONTROL2_0 7.834e-03
*RC C3018:CONTROL2_0 7.834e-03
*END

*R_NET N119 2.546e+00
*DRIVER B_58:Z
*CELL GTECH_BUF
*C2_R1_C1 1.273e+00 1.969e-01 1.273e+00 
*LOADS
*RC C3025:CONTROL3_0 7.834e-03
*RC C3024:CONTROL3_0 7.834e-03
*RC C3023:CONTROL3_0 7.834e-03
*RC C3022:CONTROL3_0 7.834e-03
*RC C3021:CONTROL3_0 7.834e-03
*RC C3020:CONTROL3_0 7.834e-03
*RC C3019:CONTROL3_0 7.834e-03
*RC C3018:CONTROL3_0 7.834e-03
*END

*R_NET N120 2.546e+00
*DRIVER B_59:Z
*CELL GTECH_BUF
*C2_R1_C1 1.273e+00 1.969e-01 1.273e+00 
*LOADS
*RC C3025:CONTROL4_0 7.834e-03
*RC C3024:CONTROL4_0 7.834e-03
*RC C3023:CONTROL4_0 7.834e-03
*RC C3022:CONTROL4_0 7.834e-03
*RC C3021:CONTROL4_0 7.834e-03
*RC C3020:CONTROL4_0 7.834e-03
*RC C3019:CONTROL4_0 7.834e-03
*RC C3018:CONTROL4_0 7.834e-03
*END

*R_NET N121 2.546e+00
*DRIVER B_60:Z
*CELL GTECH_BUF
*C2_R1_C1 1.273e+00 1.969e-01 1.273e+00 